Version 4
SHEET 1 880 680
WIRE 256 -16 128 -16
WIRE 304 32 208 32
WIRE 128 48 128 -16
WIRE 176 48 128 48
WIRE 256 64 256 -16
WIRE 256 64 240 64
WIRE 304 64 304 32
WIRE 304 64 256 64
WIRE 400 64 384 64
WIRE 592 64 400 64
WIRE 48 80 0 80
WIRE 144 80 128 80
WIRE 176 80 144 80
WIRE 0 128 0 80
WIRE 64 128 0 128
WIRE 0 144 0 128
WIRE 144 144 80 144
WIRE 208 160 208 96
WIRE 736 160 208 160
WIRE 288 192 144 192
WIRE 656 192 576 192
WIRE 304 208 304 64
WIRE 304 208 208 208
WIRE 496 208 304 208
WIRE 656 208 656 192
WIRE 208 224 208 208
WIRE 144 240 144 192
WIRE 176 240 144 240
WIRE 288 256 288 192
WIRE 288 256 240 256
WIRE 384 256 368 256
WIRE 400 256 400 64
WIRE 400 256 384 256
WIRE 64 272 64 128
WIRE 176 272 128 272
WIRE 736 288 736 160
WIRE 736 288 656 288
WIRE 128 304 128 272
WIRE 448 320 448 112
WIRE 656 320 656 288
WIRE 656 320 448 320
WIRE 208 352 208 288
WIRE 656 352 656 320
WIRE 656 352 208 352
WIRE 128 400 128 384
WIRE 0 416 0 224
WIRE 80 416 80 144
WIRE 80 416 0 416
WIRE 128 416 128 400
WIRE 128 416 80 416
WIRE 208 416 128 416
WIRE 416 416 416 96
WIRE 416 416 208 416
WIRE 496 416 496 288
WIRE 496 416 416 416
WIRE 576 416 576 192
WIRE 576 416 496 416
FLAG 208 416 0
SYMBOL voltage 0 128 R0
WINDOW 3 -198 97 Left 2
SYMATTR Value SINE(0 1 1k 0 0)
SYMATTR InstName V1
SYMBOL OpAmps\\LT1013 208 0 R0
SYMATTR InstName U1
SYMBOL OpAmps\\LT1013 208 192 R0
SYMATTR InstName U3
SYMBOL cap 128 256 R90
WINDOW 0 0 32 VBottom 2
WINDOW 3 32 32 VTop 2
SYMATTR InstName C1
SYMATTR Value 0.1µ
SYMBOL cap 128 80 R0
SYMATTR InstName C2
SYMATTR Value 0.1µ
SYMBOL memristor 352 64 R90
SYMATTR InstName U4
SYMBOL memristor 336 256 R90
SYMATTR InstName U5
SYMBOL memristor 96 80 R90
SYMATTR InstName U6
SYMBOL memristor 128 352 R180
SYMATTR InstName U7
SYMBOL voltage 496 192 R0
SYMATTR InstName V2
SYMATTR Value 1
SYMBOL voltage 656 192 R0
SYMATTR InstName V3
SYMATTR Value -1
TEXT -200 440 Left 2 !.tran 5m
