Version 4
SHEET 1 880 680
WIRE 112 96 32 96
WIRE 208 96 192 96
WIRE 256 96 208 96
WIRE 384 96 320 96
WIRE 32 128 32 96
WIRE 384 128 384 96
WIRE 208 144 208 96
WIRE 208 144 192 144
WIRE 384 224 384 208
WIRE 32 256 32 208
WIRE 192 256 192 208
WIRE 192 256 32 256
WIRE 384 256 384 224
WIRE 384 256 192 256
FLAG 192 256 0
SYMBOL voltage 32 112 R0
WINDOW 3 -195 118 Left 2
SYMATTR InstName V1
SYMATTR Value SINE(0 1 1k 0 0)
SYMBOL cap 176 144 R0
SYMATTR InstName C1
SYMATTR Value 16n
SYMBOL cap 320 80 R90
WINDOW 0 0 32 VBottom 2
WINDOW 3 32 32 VTop 2
SYMATTR InstName C2
SYMATTR Value 16n
SYMBOL memristor 160 96 R90
SYMATTR InstName U1
SYMBOL memristor 384 176 R180
SYMATTR InstName U2
TEXT -164 280 Left 2 !.tran 5m
