Version 4
SHEET 1 880 680
WIRE 128 112 32 112
WIRE 256 112 192 112
WIRE 32 128 32 112
WIRE 256 144 256 112
WIRE 32 288 32 208
WIRE 144 288 32 288
WIRE 256 288 256 240
WIRE 256 288 144 288
FLAG 144 288 0
SYMBOL voltage 32 112 R0
WINDOW 3 -184 100 Left 2
SYMATTR Value SINE(0 1 1k 0 0)
SYMATTR InstName V1
SYMBOL cap 192 96 R90
WINDOW 0 0 32 VBottom 2
WINDOW 3 32 32 VTop 2
SYMATTR InstName C1
SYMATTR Value 16n
SYMBOL memristor 256 192 R0
SYMATTR InstName U1
TEXT -152 312 Left 2 !.tran 5m
