Version 4
SHEET 1 880 680
WIRE 176 112 16 112
WIRE 16 128 16 112
WIRE 272 208 176 208
WIRE 16 256 16 208
WIRE 176 256 16 256
FLAG 176 272 0
SYMBOL voltage 16 112 R0
WINDOW 3 -174 156 Left 2
SYMATTR Value SIN(0 1 1k 0 0)
SYMATTR InstName V1
SYMBOL memristor 176 160 R0
SYMATTR InstName U1
SYMBOL cap 160 208 R0
SYMATTR InstName C1
SYMATTR Value 16n
TEXT -160 296 Left 2 !.tran 5m
