Version 4
SHEET 1 880 1860
WIRE 144 -592 -96 -592
WIRE 304 -592 144 -592
WIRE 144 -544 144 -592
WIRE 304 -544 304 -592
WIRE 368 -464 304 -464
WIRE 240 -400 32 -400
WIRE 32 -384 32 -400
WIRE 368 -352 368 -464
WIRE 416 -352 368 -352
WIRE 144 -336 144 -464
WIRE 32 -304 -16 -304
WIRE 240 -272 240 -400
WIRE 320 -272 240 -272
WIRE 96 -256 32 -256
WIRE 368 -256 256 -256
WIRE 32 -224 32 -256
WIRE 144 -192 144 -240
WIRE 256 -192 256 -256
WIRE 256 -192 144 -192
WIRE 416 -192 416 -352
WIRE 240 -160 160 -160
WIRE -96 -96 -96 -592
WIRE -16 -96 -16 -304
WIRE -16 -96 -96 -96
WIRE 32 -96 32 -144
WIRE 32 -96 -16 -96
WIRE 128 -96 32 -96
WIRE 128 -64 128 -96
WIRE 160 -64 160 -80
WIRE 160 -64 128 -64
WIRE 256 -64 256 -96
WIRE 336 -64 256 -64
WIRE 416 -64 416 -96
WIRE 416 -64 336 -64
WIRE 32 -32 32 -96
WIRE 336 -32 336 -64
WIRE 240 48 240 -160
WIRE 288 48 240 48
WIRE 128 64 128 -64
WIRE 336 64 128 64
WIRE 240 1856 240 1808
FLAG 32 -32 0
SYMBOL memristor 256 -144 R180
SYMATTR InstName U1
SYMBOL nmos 96 -336 R0
SYMATTR InstName T1
SYMBOL nmos 320 -352 R0
SYMATTR InstName T2
SYMBOL nmos 288 -32 R0
SYMATTR InstName T3
SYMBOL memristor 416 -144 R0
SYMATTR InstName U2
SYMBOL voltage 32 -240 R0
WINDOW 3 -471 85 Left 2
SYMATTR InstName RD
SYMATTR Value PULSE(0 5 0 1n 1n 10u 50u)
SYMBOL voltage 32 -400 R0
WINDOW 3 -497 105 Left 2
SYMATTR InstName WR
SYMATTR Value PULSE(0 5 20u 1n 1n 10u 50u)
SYMBOL voltage 160 -176 R0
WINDOW 3 -424 112 Left 2
SYMATTR InstName Comb
SYMATTR Value PULSE(0 5 10u 1n 1n 20u 50u)
SYMBOL voltage 144 -448 R180
WINDOW 123 0 0 Left 0
WINDOW 39 0 0 Left 0
SYMATTR InstName V1
SYMATTR Value 2.5
SYMBOL voltage 304 -448 R180
WINDOW 0 24 96 Left 2
WINDOW 3 24 16 Left 2
SYMATTR InstName V2
SYMATTR Value 1.25
TEXT -160 80 Left 2 !.tran 100u
