Version 4
SHEET 1 880 680
WIRE 0 -48 -208 -48
WIRE 80 -48 0 -48
WIRE 128 -48 80 -48
WIRE 192 -48 128 -48
WIRE 128 -16 128 -48
WIRE 0 0 0 -48
WIRE 80 64 80 -48
WIRE 112 64 80 64
WIRE -48 160 -128 160
WIRE 192 192 192 -48
WIRE 112 256 112 64
WIRE -208 272 -208 -48
WIRE -128 272 -128 240
WIRE -128 272 -208 272
WIRE 112 352 112 336
WIRE 144 352 112 352
WIRE 192 368 0 368
FLAG 128 -16 0
SYMBOL memristor 0 224 M180
SYMATTR InstName U1
SYMBOL nmos -48 80 R0
SYMATTR InstName M1
SYMBOL memristor 0 320 R180
SYMATTR InstName U2
SYMBOL voltage -128 144 R0
WINDOW 3 -349 96 Left 2
SYMATTR Value PULSE(0 2 50m 1n 1n 1m 5m)
SYMATTR InstName RD
SYMBOL voltage 192 288 R180
WINDOW 0 24 96 Left 2
WINDOW 3 24 16 Left 2
SYMATTR InstName VDD/4
SYMATTR Value 1.25
SYMBOL voltage 112 352 R180
WINDOW 0 24 96 Left 2
WINDOW 3 -369 -30 Left 2
SYMATTR InstName WR
SYMATTR Value PULSE(0 2 35m 1n 1n 1m 4m)
SYMBOL voltage 0 96 R180
WINDOW 0 24 96 Left 2
WINDOW 3 24 16 Left 2
SYMATTR InstName VDD/2
SYMATTR Value 2.5
SYMBOL nmos 144 272 R0
SYMATTR InstName M2
TEXT -184 384 Left 2 !.tran 0 100m
