Version 4
SHEET 1 880 680
WIRE 464 48 336 48
WIRE 224 64 80 64
WIRE 336 64 336 48
WIRE 288 144 256 144
WIRE 64 160 80 144
WIRE 64 160 0 160
WIRE 384 160 336 160
WIRE 48 176 64 160
WIRE 224 192 224 160
WIRE 256 192 256 144
WIRE 256 192 224 192
WIRE 224 208 224 192
WIRE 80 224 48 176
WIRE 256 240 256 192
WIRE 288 240 256 240
WIRE 224 304 80 304
WIRE 0 368 0 160
WIRE 336 368 336 256
WIRE 336 368 0 368
WIRE 464 368 464 128
WIRE 464 368 336 368
FLAG 48 176 0
SYMBOL memristor 224 112 R0
SYMATTR InstName U1
SYMBOL memristor 224 256 R0
SYMATTR InstName U2
SYMBOL voltage 80 48 R0
SYMATTR InstName V1
SYMATTR Value 5V
SYMBOL voltage 80 320 R180
WINDOW 0 24 96 Left 2
WINDOW 3 24 16 Left 2
SYMATTR InstName V2
SYMATTR Value 5V
SYMBOL pmos 288 64 R0
SYMATTR InstName M1
SYMBOL nmos 288 160 R0
SYMATTR InstName M2
SYMBOL voltage 464 32 R0
SYMATTR InstName V3
TEXT -2 374 Left 2 !.tran 100
