Version 4
SHEET 1 880 680
WIRE 624 64 560 64
WIRE 560 80 560 64
WIRE 560 80 528 80
WIRE 160 96 32 96
WIRE 304 96 160 96
WIRE 400 96 400 80
WIRE 400 96 352 96
WIRE 32 112 32 96
WIRE 480 160 464 160
WIRE 672 176 528 176
WIRE 224 192 160 192
WIRE 304 192 224 192
WIRE 352 192 352 96
WIRE 352 192 304 192
WIRE 224 208 224 192
WIRE 464 208 464 160
WIRE 464 208 224 208
WIRE 32 256 32 192
WIRE 224 256 32 256
WIRE 304 256 224 256
WIRE 400 256 400 176
WIRE 400 256 304 256
WIRE 464 256 464 208
WIRE 480 256 464 256
WIRE 400 272 400 256
WIRE 528 272 400 272
WIRE 304 288 304 256
WIRE 624 288 624 144
WIRE 624 288 304 288
FLAG 224 256 0
SYMBOL memristor 160 144 R0
SYMATTR InstName U1
SYMBOL memristor 304 144 R0
SYMATTR InstName U2
SYMBOL voltage 400 80 R0
SYMATTR InstName V1
SYMATTR Value 5V
SYMBOL voltage 32 96 R0
SYMATTR InstName V2
SYMATTR Value 0V
SYMBOL pmos 480 80 R0
SYMATTR InstName M2
SYMBOL nmos 480 176 R0
SYMATTR InstName M1
SYMBOL voltage 624 48 R0
SYMATTR InstName V3
SYMATTR Value 5V
TEXT -2 282 Left 2 !.tran 1
