Version 4
SHEET 1 880 680
WIRE 144 128 80 128
WIRE 272 128 144 128
WIRE 352 128 304 128
WIRE 352 144 352 128
WIRE 272 224 144 224
WIRE 304 224 304 128
WIRE 304 224 272 224
WIRE 80 256 80 208
WIRE 208 256 80 256
WIRE 352 256 352 224
WIRE 352 256 208 256
WIRE 208 272 208 256
FLAG 208 272 0
SYMBOL memristor 144 176 R0
SYMATTR InstName U1
SYMBOL memristor 272 176 R0
SYMATTR InstName U2
SYMBOL voltage 80 112 R0
WINDOW 0 -34 3 Left 2
WINDOW 3 -43 104 Left 2
SYMATTR InstName V1
SYMATTR Value 0V
SYMBOL voltage 352 128 R0
SYMATTR InstName V2
SYMATTR Value 5V
TEXT -18 328 Left 2 !.tran 100
